-------------------------------------------------------
          Amber 22 PMEMD                              2022
          -------------------------------------------------------

  [-O]verwriting output

File Assignments:

 Here is the input file:

100ns or 100000 ps --> 100ps for now NPT production using Langevin thermostat a
&cntrl
  irest     = 1,
  ntx       = 5,
  ig        = -1,
  dt        = 0.002,
  nstlim    = 50000,
  nscm      = 500,
  ntr       = 0,
  ntb       = 2,
  ntp       = 1,
  barostat  = 2,
  pres0     = 1.0,
  mcbarint  = 100,
  comp      = 44.6,
  taup      = 1.0,
  ntt       = 3,
  temp0     = 298.0,
  gamma_ln  = 1.0,
  ntf       = 2,
  ntc       = 2,
  cut       = 10.0,
  ntpr      = 5000,
  ntxo      = 2,
  ntwr      = 25000,
  ioutfm    = 1,
  ntwx      = 5000,
  iwrap     = 1,
&end

Note: ig = -1. Setting random seed to   298736 based on wallclock time in
      microseconds.

--------------------------------------------------------------------------------
   1.  RESOURCE   USE:
--------------------------------------------------------------------------------

 getting box info from netcdf restart file
 NATOM  =   54148 NTYPES =      19 NBONH =   39660 MBONA  =   14527
 NTHETH =    4164 MTHETA =    2615 NPHIH =    8422 MPHIA  =    8131
 NHPARM =       0 NPARM  =       0 NNB   =  108799 NRES   =   12857
 NBONA  =   14527 NTHETA =    2615 NPHIA =    8131 NUMBND =      92
 NUMANG =     221 NPTRA  =     200 NATYP =      45 NPHB   =       0
 IFBOX  =       2 NMXRS  =      42 IFCAP =       0 NEXTRA =   12612
 NCOPY  =       0

     BOX TYPE: TRUNCATED OCTAHEDRON

--------------------------------------------------------------------------------
   2.  CONTROL  DATA  FOR  THE  RUN
--------------------------------------------------------------------------------

default_name

General flags:
     imin    =       0, nmropt  =       0

Nature and format of input:
     ntx     =       5, irest   =       1, ntrx    =       1

Nature and format of output:
     ntxo    =       2, ntpr    =    5000, ntrx    =       1, ntwr    =   25000
     iwrap   =       1, ntwx    =    5000, ntwv    =       0, ntwe    =       0
     ioutfm  =       1, ntwprt  =       0, idecomp =       0, rbornstat=      0

Potential function:
     ntf     =       2, ntb     =       2, igb     =       0, nsnb    =      25
     ipol    =       0, gbsa    =       0, iesp    =       0
     dielc   =   1.00000, cut     =  10.00000, intdiel =   1.00000

Frozen or restrained atoms:
     ibelly  =       0, ntr     =       0

Molecular dynamics:
     nstlim  =     50000, nscm    =       500, nrespa  =         1
     t       =   0.00000, dt      =   0.00200, vlimit  =  -1.00000

Langevin dynamics temperature regulation:
     ig      =  298736
     temp0   = 298.00000, tempi   =   0.00000, gamma_ln=   1.00000

Pressure regulation:
     ntp     =       1
     pres0   =   1.00000, comp    =  44.60000, taup    =   1.00000
     Monte-Carlo Barostat:
     mcbarint  =     100

SHAKE:
     ntc     =       2, jfastw  =       0
     tol     =   0.00001

Extra-points options:
     frameon =       1, chngmask=       1

Ewald parameters:
     verbose =       0, ew_type =       0, nbflag  =       1, use_pme =       1
     vdwmeth =       1, eedmeth =       1, netfrc  =       1
     Box X =   81.042   Box Y =   81.042   Box Z =   81.042
     Alpha =  109.471   Beta  =  109.471   Gamma =  109.471
     NFFT1 =   84       NFFT2 =   84       NFFT3 =   84
     Cutoff=   10.000   Tol   =0.100E-04
     Ewald Coefficient =  0.27511
     Interpolation order =    4

--------------------------------------------------------------------------------
   3.  ATOMIC COORDINATES AND VELOCITIES
--------------------------------------------------------------------------------

default_name
 begin time read from input coords =  2020.000 ps

 Number of triangulated 3-point waters found:    12612

     Sum of charges from parm topology file =   0.00007304
     Forcing neutrality...

--------------------------------------------------------------------------------
   4.  RESULTS
 NSTEP =     5000   TIME(PS) =    2030.000  TEMP(K) =   299.43  PRESS =     0.0
 Etot   =   -138950.7435  EKtot   =     25272.8770  EPtot      =   -164223.6205
 BOND   =       697.1205  ANGLE   =      1853.3179  DIHED      =      1216.6584
 1-4 NB =       816.6807  1-4 EEL =     10704.9859  VDWAALS    =     20481.0630
 EELEC  =   -199993.4468  EHBOND  =         0.0000  RESTRAINT  =         0.0000
 EKCMT  =         0.0000  VIRIAL  =         0.0000  VOLUME     =    409231.7459
                                                    Density    =         1.0305
 ------------------------------------------------------------------------------

      A V E R A G E S   O V E R      10 S T E P S

 NSTEP =    50000   TIME(PS) =    2120.000  TEMP(K) =   297.62  PRESS =     0.0
 Etot   =   -138759.5712  EKtot   =     25120.6715  EPtot      =   -163880.2427
 BOND   =       717.2428  ANGLE   =      1905.5475  DIHED      =      1233.2876
 1-4 NB =       817.4769  1-4 EEL =     10668.0874  VDWAALS    =     20205.5541
 EELEC  =   -199427.4390  EHBOND  =         0.0000  RESTRAINT  =         0.0000
 EKCMT  =         0.0000  VIRIAL  =         0.0000  VOLUME     =    409761.4156
                                                    Density    =         1.0292
 ------------------------------------------------------------------------------

      R M S  F L U C T U A T I O N S

 NSTEP =    50000   TIME(PS) =    2120.000  TEMP(K) =     0.90  PRESS =     0.0
 Etot   =       151.4861  EKtot   =        76.1679  EPtot      =       159.0087
 BOND   =        18.2778  ANGLE   =        35.2714  DIHED      =        14.2528
 1-4 NB =        12.2114  1-4 EEL =        30.3189  VDWAALS    =       198.3618
 EELEC  =       330.2781  EHBOND  =         0.0000  RESTRAINT  =         0.0000
 EKCMT  =         0.0000  VIRIAL  =         0.0000  VOLUME     =       805.1768
                                                    Density    =         0.0020
 ------------------------------------------------------------------------------
